hello welcome to second commit.

new line.
